20
Properties=species:S:1:pos:R:3 pbc="F F F"
Au      13.45069415      11.50498500      13.47293995
Au      11.54930586      13.49501500      13.47293995
Au      11.50498512      11.54930597      11.52705989
Au      13.49501488      13.45069403      11.52705989
Au      11.54504380      11.58719164      15.33755584
Au      13.45495620      13.41280836      15.33755584
Au      11.58719165      13.45495620       9.66244431
Au      13.41280835      11.54504380       9.66244431
Au      13.49826484      15.31536038      13.43395014
Au      11.50173516       9.68463961      13.43395014
Au      15.31536027      11.50173516      11.56604986
Au       9.68463973      13.49826484      11.56604986
Au      11.63084991      15.35788332      11.56539887
Au      13.36915009       9.64211668      11.56539887
Au      15.35788344      13.36915008      13.43460114
Au       9.64211656      11.63084992      13.43460114
Au      15.21205222       9.66243915       9.72452852
Au       9.78794778      15.33756085       9.72452852
Au       9.66243915       9.78794778      15.27547148
Au      15.33756085      15.21205222      15.27547148
